!-Generator IDFEditor 1.50
!-Option SortedOrder

!-NOTE: All comments with '!-' are ignored by the IDFEditor and are generated automatically.
!-      Use '!' comments if they need to be retained when using the IDFEditor.


!-   ===========  ALL OBJECTS IN CLASS: VERSION ===========

Version,
    8.8;                     !- Version Identifier


!-   ===========  ALL OBJECTS IN CLASS: SIMULATIONCONTROL ===========

SimulationControl,
    Yes,                     !- Do Zone Sizing Calculation
    Yes,                     !- Do System Sizing Calculation
    Yes,                     !- Do Plant Sizing Calculation
    Yes,                     !- Run Simulation for Sizing Periods
    No;                      !- Run Simulation for Weather File Run Periods


!-   ===========  ALL OBJECTS IN CLASS: BUILDING ===========

Building,
    Building 1,              !- Name
    0.0,                     !- North Axis {deg}
    ,                        !- Terrain
    0.04,                    !- Loads Convergence Tolerance Value
    0.4,                     !- Temperature Convergence Tolerance Value {deltaC}
    ,                        !- Solar Distribution
    25,                      !- Maximum Number of Warmup Days
    6;                       !- Minimum Number of Warmup Days


!-   ===========  ALL OBJECTS IN CLASS: TIMESTEP ===========

Timestep,
    1;                       !- Number of Timesteps per Hour


!-   ===========  ALL OBJECTS IN CLASS: CONVERGENCELIMITS ===========

ConvergenceLimits,
    0,                       !- Minimum System Timestep {minutes}
    20,                      !- Maximum HVAC Iterations
    2,                       !- Minimum Plant Iterations
    8;                       !- Maximum Plant Iterations


!-   ===========  ALL OBJECTS IN CLASS: SITE:LOCATION ===========

Site:Location,
    Chicago Midway Ap_IL_USA,!- Name
    41.78,                   !- Latitude {deg}
    -87.75,                  !- Longitude {deg}
    -6.0,                    !- Time Zone {hr}
    186.0;                   !- Elevation {m}


!-   ===========  ALL OBJECTS IN CLASS: SIZINGPERIOD:DESIGNDAY ===========

SizingPeriod:DesignDay,
    Chicago Midway Ap Ann Htg 99.6% Condns DB,  !- Name
    1,                       !- Month
    21,                      !- Day of Month
    WinterDesignDay,         !- Day Type
    -22.8,                   !- Maximum Dry-Bulb Temperature {C}
    0.0,                     !- Daily Dry-Bulb Temperature Range {deltaC}
    DefaultMultipliers,      !- Dry-Bulb Temperature Range Modifier Type
    ,                        !- Dry-Bulb Temperature Range Modifier Day Schedule Name
    DewPoint,                !- Humidity Condition Type
    -28.9,                   !- Wetbulb or DewPoint at Maximum Dry-Bulb {C}
    ,                        !- Humidity Condition Day Schedule Name
    ,                        !- Humidity Ratio at Maximum Dry-Bulb {kgWater/kgDryAir}
    0.0,                     !- Enthalpy at Maximum Dry-Bulb {J/kg}
    ,                        !- Daily Wet-Bulb Temperature Range {deltaC}
    100300.0,                !- Barometric Pressure {Pa}
    5.6,                     !- Wind Speed {m/s}
    300.0,                   !- Wind Direction {deg}
    No,                      !- Rain Indicator
    No,                      !- Snow Indicator
    No,                      !- Daylight Saving Time Indicator
    AshraeClearSky,          !- Solar Model Indicator
    ,                        !- Beam Solar Day Schedule Name
    ,                        !- Diffuse Solar Day Schedule Name
    ,                        !- ASHRAE Clear Sky Optical Depth for Beam Irradiance (taub) {dimensionless}
    ,                        !- ASHRAE Clear Sky Optical Depth for Diffuse Irradiance (taud) {dimensionless}
    0.0;                     !- Sky Clearness

SizingPeriod:DesignDay,
    Chicago Midway Ap Ann Clg .4% Condns DB=>MWB (month 7),  !- Name
    7,                       !- Month
    21,                      !- Day of Month
    SummerDesignDay,         !- Day Type
    33.0,                    !- Maximum Dry-Bulb Temperature {C}
    9.2,                     !- Daily Dry-Bulb Temperature Range {deltaC}
    DefaultMultipliers,      !- Dry-Bulb Temperature Range Modifier Type
    ,                        !- Dry-Bulb Temperature Range Modifier Day Schedule Name
    DewPoint,                !- Humidity Condition Type
    17.0,                    !- Wetbulb or DewPoint at Maximum Dry-Bulb {C}
    ,                        !- Humidity Condition Day Schedule Name
    ,                        !- Humidity Ratio at Maximum Dry-Bulb {kgWater/kgDryAir}
    0.0,                     !- Enthalpy at Maximum Dry-Bulb {J/kg}
    ,                        !- Daily Wet-Bulb Temperature Range {deltaC}
    99300.0,                 !- Barometric Pressure {Pa}
    6.2,                     !- Wind Speed {m/s}
    220.0,                   !- Wind Direction {deg}
    No,                      !- Rain Indicator
    No,                      !- Snow Indicator
    No,                      !- Daylight Saving Time Indicator
    AshraeClearSky,          !- Solar Model Indicator
    ,                        !- Beam Solar Day Schedule Name
    ,                        !- Diffuse Solar Day Schedule Name
    ,                        !- ASHRAE Clear Sky Optical Depth for Beam Irradiance (taub) {dimensionless}
    ,                        !- ASHRAE Clear Sky Optical Depth for Diffuse Irradiance (taud) {dimensionless}
    1.0;                     !- Sky Clearness


!-   ===========  ALL OBJECTS IN CLASS: RUNPERIOD ===========

RunPeriod,
    Run Period 1,            !- Name
    1,                       !- Begin Month
    1,                       !- Begin Day of Month
    1,                       !- End Month
    1,                       !- End Day of Month
    ,                        !- Day of Week for Start Day
    No,                      !- Use Weather File Holidays and Special Days
    No,                      !- Use Weather File Daylight Saving Period
    No,                      !- Apply Weekend Holiday Rule
    Yes,                     !- Use Weather File Rain Indicators
    Yes,                     !- Use Weather File Snow Indicators
    1;                       !- Number of Times Runperiod to be Repeated


!-   ===========  ALL OBJECTS IN CLASS: SITE:GROUNDTEMPERATURE:BUILDINGSURFACE ===========

Site:GroundTemperature:BuildingSurface,
    3.11,                    !- January Ground Temperature {C}
    0.91,                    !- February Ground Temperature {C}
    1.42,                    !- March Ground Temperature {C}
    3.33,                    !- April Ground Temperature {C}
    9.51,                    !- May Ground Temperature {C}
    15.07,                   !- June Ground Temperature {C}
    19.48,                   !- July Ground Temperature {C}
    21.82,                   !- August Ground Temperature {C}
    21.25,                   !- September Ground Temperature {C}
    18.08,                   !- October Ground Temperature {C}
    12.99,                   !- November Ground Temperature {C}
    7.62;                    !- December Ground Temperature {C}


!-   ===========  ALL OBJECTS IN CLASS: SCHEDULETYPELIMITS ===========

ScheduleTypeLimits,
    ActivityLevel,           !- Name
    0,                       !- Lower Limit Value
    ,                        !- Upper Limit Value
    Continuous,              !- Numeric Type
    activitylevel;           !- Unit Type

ScheduleTypeLimits,
    Fractional Sch Limits,   !- Name
    0,                       !- Lower Limit Value
    1,                       !- Upper Limit Value
    Continuous;              !- Numeric Type

ScheduleTypeLimits,
    HVACTemplate Any Number; !- Name


!-   ===========  ALL OBJECTS IN CLASS: SCHEDULE:DAY:INTERVAL ===========

Schedule:Day:Interval,
    Schedule Day On,         !- Name
    Fractional Sch Limits,   !- Schedule Type Limits Name
    No,                      !- Interpolate to Timestep
    24:00,                   !- Time 1 {hh:mm}
    1;                       !- Value Until Time 1

Schedule:Day:Interval,
    Schedule Day Off,        !- Name
    Fractional Sch Limits,   !- Schedule Type Limits Name
    No,                      !- Interpolate to Timestep
    24:00,                   !- Time 1 {hh:mm}
    0;                       !- Value Until Time 1

Schedule:Day:Interval,
    Schedule Day Activity Level,  !- Name
    ActivityLevel,           !- Schedule Type Limits Name
    No,                      !- Interpolate to Timestep
    24:00,                   !- Time 1 {hh:mm}
    125;                     !- Value Until Time 1

Schedule:Day:Interval,
    Schedule 5% Load,        !- Name
    Fractional Sch Limits,   !- Schedule Type Limits Name
    No,                      !- Interpolate to Timestep
    24:00,                   !- Time 1 {hh:mm}
    0.05;                    !- Value Until Time 1

Schedule:Day:Interval,
    Heating Always Off,      !- Name
    ,                        !- Schedule Type Limits Name
    No,                      !- Interpolate to Timestep
    Until: 24:00,            !- Time 1 {hh:mm}
    0;                       !- Value Until Time 1

Schedule:Day:Interval,
    Cooling Always Off,      !- Name
    ,                        !- Schedule Type Limits Name
    No,                      !- Interpolate to Timestep
    Until: 24:00,            !- Time 1 {hh:mm}
    90;                      !- Value Until Time 1

Schedule:Day:Interval,
    Cooling Always on Setback for Base Space Type,  !- Name
    ,                        !- Schedule Type Limits Name
    No,                      !- Interpolate to Timestep
    Until: 24:00,            !- Time 1 {hh:mm}
    27.77778;                !- Value Until Time 1

Schedule:Day:Interval,
    Heating Always on Setback for Base Space Type,  !- Name
    ,                        !- Schedule Type Limits Name
    No,                      !- Interpolate to Timestep
    Until: 24:00,            !- Time 1 {hh:mm}
    11.66667;                !- Value Until Time 1

Schedule:Day:Interval,
    Schedule Day Weekday Diversity Base Space Type,  !- Name
    Fractional Sch Limits,   !- Schedule Type Limits Name
    No,                      !- Interpolate to Timestep
    01:00,                   !- Time 1 {hh:mm}
    0.0,                     !- Value Until Time 1
    02:00,                   !- Time 2 {hh:mm}
    0.0,                     !- Value Until Time 2
    03:00,                   !- Time 3 {hh:mm}
    0.0,                     !- Value Until Time 3
    04:00,                   !- Time 4 {hh:mm}
    0.0,                     !- Value Until Time 4
    05:00,                   !- Time 5 {hh:mm}
    0.0,                     !- Value Until Time 5
    06:00,                   !- Time 6 {hh:mm}
    0.0,                     !- Value Until Time 6
    07:00,                   !- Time 7 {hh:mm}
    0.0,                     !- Value Until Time 7
    08:00,                   !- Time 8 {hh:mm}
    0.07,                    !- Value Until Time 8
    09:00,                   !- Time 9 {hh:mm}
    0.15,                    !- Value Until Time 9
    10:00,                   !- Time 10 {hh:mm}
    0.7,                     !- Value Until Time 10
    11:00,                   !- Time 11 {hh:mm}
    0.7,                     !- Value Until Time 11
    12:00,                   !- Time 12 {hh:mm}
    0.7,                     !- Value Until Time 12
    13:00,                   !- Time 13 {hh:mm}
    0.35,                    !- Value Until Time 13
    14:00,                   !- Time 14 {hh:mm}
    0.7,                     !- Value Until Time 14
    15:00,                   !- Time 15 {hh:mm}
    0.7,                     !- Value Until Time 15
    16:00,                   !- Time 16 {hh:mm}
    0.7,                     !- Value Until Time 16
    17:00,                   !- Time 17 {hh:mm}
    0.7,                     !- Value Until Time 17
    18:00,                   !- Time 18 {hh:mm}
    0.7,                     !- Value Until Time 18
    19:00,                   !- Time 19 {hh:mm}
    0.2,                     !- Value Until Time 19
    20:00,                   !- Time 20 {hh:mm}
    0.05,                    !- Value Until Time 20
    21:00,                   !- Time 21 {hh:mm}
    0.05,                    !- Value Until Time 21
    22:00,                   !- Time 22 {hh:mm}
    0.05,                    !- Value Until Time 22
    23:00,                   !- Time 23 {hh:mm}
    0.0,                     !- Value Until Time 23
    24:00,                   !- Time 24 {hh:mm}
    0.0;                     !- Value Until Time 24

Schedule:Day:Interval,
    Schedule Day Morning Weekday Diversity Base Space Type,  !- Name
    Fractional Sch Limits,   !- Schedule Type Limits Name
    No,                      !- Interpolate to Timestep
    01:00,                   !- Time 1 {hh:mm}
    0.0,                     !- Value Until Time 1
    02:00,                   !- Time 2 {hh:mm}
    0.0,                     !- Value Until Time 2
    03:00,                   !- Time 3 {hh:mm}
    0.0,                     !- Value Until Time 3
    04:00,                   !- Time 4 {hh:mm}
    0.0,                     !- Value Until Time 4
    05:00,                   !- Time 5 {hh:mm}
    0.0,                     !- Value Until Time 5
    06:00,                   !- Time 6 {hh:mm}
    0.0,                     !- Value Until Time 6
    07:00,                   !- Time 7 {hh:mm}
    0.0,                     !- Value Until Time 7
    08:00,                   !- Time 8 {hh:mm}
    0.07,                    !- Value Until Time 8
    24:00,                   !- Time 9 {hh:mm}
    1;                       !- Value Until Time 9

Schedule:Day:Interval,
    Schedule Day Cooling Base Space Type,  !- Name
    ,                        !- Schedule Type Limits Name
    No,                      !- Interpolate to Timestep
    01:00,                   !- Time 1 {hh:mm}
    27.77778,                !- Value Until Time 1
    02:00,                   !- Time 2 {hh:mm}
    27.77778,                !- Value Until Time 2
    03:00,                   !- Time 3 {hh:mm}
    27.77778,                !- Value Until Time 3
    04:00,                   !- Time 4 {hh:mm}
    27.77778,                !- Value Until Time 4
    05:00,                   !- Time 5 {hh:mm}
    27.77778,                !- Value Until Time 5
    06:00,                   !- Time 6 {hh:mm}
    27.77778,                !- Value Until Time 6
    07:00,                   !- Time 7 {hh:mm}
    27.77778,                !- Value Until Time 7
    08:00,                   !- Time 8 {hh:mm}
    23.88889,                !- Value Until Time 8
    09:00,                   !- Time 9 {hh:mm}
    23.88889,                !- Value Until Time 9
    10:00,                   !- Time 10 {hh:mm}
    23.88889,                !- Value Until Time 10
    11:00,                   !- Time 11 {hh:mm}
    23.88889,                !- Value Until Time 11
    12:00,                   !- Time 12 {hh:mm}
    23.88889,                !- Value Until Time 12
    13:00,                   !- Time 13 {hh:mm}
    23.88889,                !- Value Until Time 13
    14:00,                   !- Time 14 {hh:mm}
    23.88889,                !- Value Until Time 14
    15:00,                   !- Time 15 {hh:mm}
    23.88889,                !- Value Until Time 15
    16:00,                   !- Time 16 {hh:mm}
    23.88889,                !- Value Until Time 16
    17:00,                   !- Time 17 {hh:mm}
    23.88889,                !- Value Until Time 17
    18:00,                   !- Time 18 {hh:mm}
    23.88889,                !- Value Until Time 18
    19:00,                   !- Time 19 {hh:mm}
    27.77778,                !- Value Until Time 19
    20:00,                   !- Time 20 {hh:mm}
    27.77778,                !- Value Until Time 20
    21:00,                   !- Time 21 {hh:mm}
    27.77778,                !- Value Until Time 21
    22:00,                   !- Time 22 {hh:mm}
    27.77778,                !- Value Until Time 22
    23:00,                   !- Time 23 {hh:mm}
    27.77778,                !- Value Until Time 23
    24:00,                   !- Time 24 {hh:mm}
    27.77778;                !- Value Until Time 24

Schedule:Day:Interval,
    Schedule Day Heating Base Space Type,  !- Name
    ,                        !- Schedule Type Limits Name
    No,                      !- Interpolate to Timestep
    01:00,                   !- Time 1 {hh:mm}
    11.66667,                !- Value Until Time 1
    02:00,                   !- Time 2 {hh:mm}
    11.66667,                !- Value Until Time 2
    03:00,                   !- Time 3 {hh:mm}
    11.66667,                !- Value Until Time 3
    04:00,                   !- Time 4 {hh:mm}
    11.66667,                !- Value Until Time 4
    05:00,                   !- Time 5 {hh:mm}
    11.66667,                !- Value Until Time 5
    06:00,                   !- Time 6 {hh:mm}
    11.66667,                !- Value Until Time 6
    07:00,                   !- Time 7 {hh:mm}
    11.66667,                !- Value Until Time 7
    08:00,                   !- Time 8 {hh:mm}
    21.11111,                !- Value Until Time 8
    09:00,                   !- Time 9 {hh:mm}
    21.11111,                !- Value Until Time 9
    10:00,                   !- Time 10 {hh:mm}
    21.11111,                !- Value Until Time 10
    11:00,                   !- Time 11 {hh:mm}
    21.11111,                !- Value Until Time 11
    12:00,                   !- Time 12 {hh:mm}
    21.11111,                !- Value Until Time 12
    13:00,                   !- Time 13 {hh:mm}
    21.11111,                !- Value Until Time 13
    14:00,                   !- Time 14 {hh:mm}
    21.11111,                !- Value Until Time 14
    15:00,                   !- Time 15 {hh:mm}
    21.11111,                !- Value Until Time 15
    16:00,                   !- Time 16 {hh:mm}
    21.11111,                !- Value Until Time 16
    17:00,                   !- Time 17 {hh:mm}
    21.11111,                !- Value Until Time 17
    18:00,                   !- Time 18 {hh:mm}
    21.11111,                !- Value Until Time 18
    19:00,                   !- Time 19 {hh:mm}
    11.66667,                !- Value Until Time 19
    20:00,                   !- Time 20 {hh:mm}
    11.66667,                !- Value Until Time 20
    21:00,                   !- Time 21 {hh:mm}
    11.66667,                !- Value Until Time 21
    22:00,                   !- Time 22 {hh:mm}
    11.66667,                !- Value Until Time 22
    23:00,                   !- Time 23 {hh:mm}
    11.66667,                !- Value Until Time 23
    24:00,                   !- Time 24 {hh:mm}
    11.66667;                !- Value Until Time 24

Schedule:Day:Interval,
    Cooling Always on Setback for Base [Without Windows] Space Type,  !- Name
    ,                        !- Schedule Type Limits Name
    No,                      !- Interpolate to Timestep
    Until: 24:00,            !- Time 1 {hh:mm}
    27.77778;                !- Value Until Time 1

Schedule:Day:Interval,
    Heating Always on Setback for Base [Without Windows] Space Type,  !- Name
    ,                        !- Schedule Type Limits Name
    No,                      !- Interpolate to Timestep
    Until: 24:00,            !- Time 1 {hh:mm}
    11.66667;                !- Value Until Time 1

Schedule:Day:Interval,
    Schedule Day Cooling Base [Without Windows] Space Type,  !- Name
    ,                        !- Schedule Type Limits Name
    No,                      !- Interpolate to Timestep
    01:00,                   !- Time 1 {hh:mm}
    27.77778,                !- Value Until Time 1
    02:00,                   !- Time 2 {hh:mm}
    27.77778,                !- Value Until Time 2
    03:00,                   !- Time 3 {hh:mm}
    27.77778,                !- Value Until Time 3
    04:00,                   !- Time 4 {hh:mm}
    27.77778,                !- Value Until Time 4
    05:00,                   !- Time 5 {hh:mm}
    27.77778,                !- Value Until Time 5
    06:00,                   !- Time 6 {hh:mm}
    27.77778,                !- Value Until Time 6
    07:00,                   !- Time 7 {hh:mm}
    27.77778,                !- Value Until Time 7
    08:00,                   !- Time 8 {hh:mm}
    23.88889,                !- Value Until Time 8
    09:00,                   !- Time 9 {hh:mm}
    23.88889,                !- Value Until Time 9
    10:00,                   !- Time 10 {hh:mm}
    23.88889,                !- Value Until Time 10
    11:00,                   !- Time 11 {hh:mm}
    23.88889,                !- Value Until Time 11
    12:00,                   !- Time 12 {hh:mm}
    23.88889,                !- Value Until Time 12
    13:00,                   !- Time 13 {hh:mm}
    23.88889,                !- Value Until Time 13
    14:00,                   !- Time 14 {hh:mm}
    23.88889,                !- Value Until Time 14
    15:00,                   !- Time 15 {hh:mm}
    23.88889,                !- Value Until Time 15
    16:00,                   !- Time 16 {hh:mm}
    23.88889,                !- Value Until Time 16
    17:00,                   !- Time 17 {hh:mm}
    23.88889,                !- Value Until Time 17
    18:00,                   !- Time 18 {hh:mm}
    23.88889,                !- Value Until Time 18
    19:00,                   !- Time 19 {hh:mm}
    27.77778,                !- Value Until Time 19
    20:00,                   !- Time 20 {hh:mm}
    27.77778,                !- Value Until Time 20
    21:00,                   !- Time 21 {hh:mm}
    27.77778,                !- Value Until Time 21
    22:00,                   !- Time 22 {hh:mm}
    27.77778,                !- Value Until Time 22
    23:00,                   !- Time 23 {hh:mm}
    27.77778,                !- Value Until Time 23
    24:00,                   !- Time 24 {hh:mm}
    27.77778;                !- Value Until Time 24

Schedule:Day:Interval,
    Schedule Day Heating Base [Without Windows] Space Type,  !- Name
    ,                        !- Schedule Type Limits Name
    No,                      !- Interpolate to Timestep
    01:00,                   !- Time 1 {hh:mm}
    11.66667,                !- Value Until Time 1
    02:00,                   !- Time 2 {hh:mm}
    11.66667,                !- Value Until Time 2
    03:00,                   !- Time 3 {hh:mm}
    11.66667,                !- Value Until Time 3
    04:00,                   !- Time 4 {hh:mm}
    11.66667,                !- Value Until Time 4
    05:00,                   !- Time 5 {hh:mm}
    11.66667,                !- Value Until Time 5
    06:00,                   !- Time 6 {hh:mm}
    11.66667,                !- Value Until Time 6
    07:00,                   !- Time 7 {hh:mm}
    11.66667,                !- Value Until Time 7
    08:00,                   !- Time 8 {hh:mm}
    21.11111,                !- Value Until Time 8
    09:00,                   !- Time 9 {hh:mm}
    21.11111,                !- Value Until Time 9
    10:00,                   !- Time 10 {hh:mm}
    21.11111,                !- Value Until Time 10
    11:00,                   !- Time 11 {hh:mm}
    21.11111,                !- Value Until Time 11
    12:00,                   !- Time 12 {hh:mm}
    21.11111,                !- Value Until Time 12
    13:00,                   !- Time 13 {hh:mm}
    21.11111,                !- Value Until Time 13
    14:00,                   !- Time 14 {hh:mm}
    21.11111,                !- Value Until Time 14
    15:00,                   !- Time 15 {hh:mm}
    21.11111,                !- Value Until Time 15
    16:00,                   !- Time 16 {hh:mm}
    21.11111,                !- Value Until Time 16
    17:00,                   !- Time 17 {hh:mm}
    21.11111,                !- Value Until Time 17
    18:00,                   !- Time 18 {hh:mm}
    21.11111,                !- Value Until Time 18
    19:00,                   !- Time 19 {hh:mm}
    11.66667,                !- Value Until Time 19
    20:00,                   !- Time 20 {hh:mm}
    11.66667,                !- Value Until Time 20
    21:00,                   !- Time 21 {hh:mm}
    11.66667,                !- Value Until Time 21
    22:00,                   !- Time 22 {hh:mm}
    11.66667,                !- Value Until Time 22
    23:00,                   !- Time 23 {hh:mm}
    11.66667,                !- Value Until Time 23
    24:00,                   !- Time 24 {hh:mm}
    11.66667;                !- Value Until Time 24


!-   ===========  ALL OBJECTS IN CLASS: SCHEDULE:WEEK:DAILY ===========

Schedule:Week:Daily,
    Schedule:Week:Daily People Activity,  !- Name
    Schedule Day Activity Level,  !- Sunday Schedule:Day Name
    Schedule Day Activity Level,  !- Monday Schedule:Day Name
    Schedule Day Activity Level,  !- Tuesday Schedule:Day Name
    Schedule Day Activity Level,  !- Wednesday Schedule:Day Name
    Schedule Day Activity Level,  !- Thursday Schedule:Day Name
    Schedule Day Activity Level,  !- Friday Schedule:Day Name
    Schedule Day Activity Level,  !- Saturday Schedule:Day Name
    Schedule Day Activity Level,  !- Holiday Schedule:Day Name
    Schedule Day Activity Level,  !- SummerDesignDay Schedule:Day Name
    Schedule Day Activity Level,  !- WinterDesignDay Schedule:Day Name
    Schedule Day Activity Level,  !- CustomDay1 Schedule:Day Name
    Schedule Day Activity Level;  !- CustomDay2 Schedule:Day Name

Schedule:Week:Daily,
    Schedule:Week:Daily Infiltration,  !- Name
    Schedule Day On,         !- Sunday Schedule:Day Name
    Schedule Day On,         !- Monday Schedule:Day Name
    Schedule Day On,         !- Tuesday Schedule:Day Name
    Schedule Day On,         !- Wednesday Schedule:Day Name
    Schedule Day On,         !- Thursday Schedule:Day Name
    Schedule Day On,         !- Friday Schedule:Day Name
    Schedule Day On,         !- Saturday Schedule:Day Name
    Schedule Day Off,        !- Holiday Schedule:Day Name
    Schedule Day On,         !- SummerDesignDay Schedule:Day Name
    Schedule Day On,         !- WinterDesignDay Schedule:Day Name
    Schedule Day Off,        !- CustomDay1 Schedule:Day Name
    Schedule Day Off;        !- CustomDay2 Schedule:Day Name

Schedule:Week:Daily,
    Schedule:Week:Daily Cooling Base Space Type,  !- Name
    Cooling Always on Setback for Base Space Type,  !- Sunday Schedule:Day Name
    Schedule Day Cooling Base Space Type,  !- Monday Schedule:Day Name
    Schedule Day Cooling Base Space Type,  !- Tuesday Schedule:Day Name
    Schedule Day Cooling Base Space Type,  !- Wednesday Schedule:Day Name
    Schedule Day Cooling Base Space Type,  !- Thursday Schedule:Day Name
    Schedule Day Cooling Base Space Type,  !- Friday Schedule:Day Name
    Cooling Always on Setback for Base Space Type,  !- Saturday Schedule:Day Name
    Cooling Always on Setback for Base Space Type,  !- Holiday Schedule:Day Name
    Schedule Day Cooling Base Space Type,  !- SummerDesignDay Schedule:Day Name
    Schedule Day Cooling Base Space Type,  !- WinterDesignDay Schedule:Day Name
    Schedule Day Cooling Base Space Type,  !- CustomDay1 Schedule:Day Name
    Schedule Day Cooling Base Space Type;  !- CustomDay2 Schedule:Day Name

Schedule:Week:Daily,
    Schedule:Week:Daily Heating Base Space Type,  !- Name
    Heating Always on Setback for Base Space Type,  !- Sunday Schedule:Day Name
    Schedule Day Heating Base Space Type,  !- Monday Schedule:Day Name
    Schedule Day Heating Base Space Type,  !- Tuesday Schedule:Day Name
    Schedule Day Heating Base Space Type,  !- Wednesday Schedule:Day Name
    Schedule Day Heating Base Space Type,  !- Thursday Schedule:Day Name
    Schedule Day Heating Base Space Type,  !- Friday Schedule:Day Name
    Heating Always on Setback for Base Space Type,  !- Saturday Schedule:Day Name
    Heating Always on Setback for Base Space Type,  !- Holiday Schedule:Day Name
    Schedule Day Heating Base Space Type,  !- SummerDesignDay Schedule:Day Name
    Schedule Day Heating Base Space Type,  !- WinterDesignDay Schedule:Day Name
    Schedule Day Heating Base Space Type,  !- CustomDay1 Schedule:Day Name
    Schedule Day Heating Base Space Type;  !- CustomDay2 Schedule:Day Name

Schedule:Week:Daily,
    Schedule:Week:Daily Internal Condition Base Space Type,  !- Name
    Schedule Day Weekday Diversity Base Space Type,  !- Sunday Schedule:Day Name
    Schedule Day Weekday Diversity Base Space Type,  !- Monday Schedule:Day Name
    Schedule Day Weekday Diversity Base Space Type,  !- Tuesday Schedule:Day Name
    Schedule Day Weekday Diversity Base Space Type,  !- Wednesday Schedule:Day Name
    Schedule Day Weekday Diversity Base Space Type,  !- Thursday Schedule:Day Name
    Schedule Day Weekday Diversity Base Space Type,  !- Friday Schedule:Day Name
    Schedule Day Weekday Diversity Base Space Type,  !- Saturday Schedule:Day Name
    Schedule Day Weekday Diversity Base Space Type,  !- Holiday Schedule:Day Name
    Schedule Day Morning Weekday Diversity Base Space Type,  !- SummerDesignDay Schedule:Day Name
    Schedule Day Off,        !- WinterDesignDay Schedule:Day Name
    Schedule Day Off,        !- CustomDay1 Schedule:Day Name
    Schedule Day Off;        !- CustomDay2 Schedule:Day Name

Schedule:Week:Daily,
    Schedule:Week:Daily Cooling Base [Without Windows] Space Type,  !- Name
    Cooling Always on Setback for Base [Without Windows] Space Type,  !- Sunday Schedule:Day Name
    Schedule Day Cooling Base [Without Windows] Space Type,  !- Monday Schedule:Day Name
    Schedule Day Cooling Base [Without Windows] Space Type,  !- Tuesday Schedule:Day Name
    Schedule Day Cooling Base [Without Windows] Space Type,  !- Wednesday Schedule:Day Name
    Schedule Day Cooling Base [Without Windows] Space Type,  !- Thursday Schedule:Day Name